<?xml version="1.0" encoding="UTF-8"?>

<!-- generated on 2025-11-12T14:42:35.589069+01:00 by Eclipse SUMO netconvert v1_24_0+1706-5c40a3e7ebb
<netconvertConfiguration xmlns:xsi="http://www.w3.org/2001/XMLSchema-instance" xsi:noNamespaceSchemaLocation="http://sumo.dlr.de/xsd/netconvertConfiguration.xsd">

    <input>
        <osm-files value="frauasmap.osm"/>
    </input>

    <output>
        <output-file value="frauasmap.net.xml"/>
    </output>

    <projection>
        <proj.utm value="true"/>
    </projection>

</netconvertConfiguration>
-->

<net version="1.20" junctionCornerDetail="5" limitTurnSpeed="5.50" xmlns:xsi="http://www.w3.org/2001/XMLSchema-instance" xsi:noNamespaceSchemaLocation="http://sumo.dlr.de/xsd/net_file.xsd">

    <location netOffset="-476860.60,-5551701.19" convBoundary="0.00,0.00,2181.30,2857.74" origBoundary="8.676238,50.117135,8.706789,50.142877" projParameter="+proj=utm +zone=32 +ellps=WGS84 +datum=WGS84 +units=m +no_defs"/>

    <type id="highway.busway" priority="1" numLanes="1" speed="27.78" allow="bus" oneway="1"/>
    <type id="highway.cycleway" priority="1" numLanes="1" speed="5.56" allow="bicycle" oneway="0" width="2.00"/>
    <type id="highway.footway" priority="1" numLanes="1" speed="2.78" allow="pedestrian" oneway="1" width="2.00"/>
    <type id="highway.living_street" priority="2" numLanes="1" speed="2.78" disallow="tram rail_urban rail rail_electric rail_fast ship container cable_car subway aircraft wheelchair scooter drone" oneway="0"/>
    <type id="highway.path" priority="1" numLanes="1" speed="5.56" allow="pedestrian bicycle" oneway="0" width="2.00"/>
    <type id="highway.pedestrian" priority="1" numLanes="1" speed="2.78" allow="pedestrian" oneway="1" width="2.00"/>
    <type id="highway.primary" priority="12" numLanes="2" speed="27.78" disallow="tram rail_urban rail rail_electric rail_fast ship container cable_car subway aircraft wheelchair scooter drone" oneway="0"/>
    <type id="highway.primary_link" priority="7" numLanes="1" speed="22.22" disallow="tram rail_urban rail rail_electric rail_fast ship container cable_car subway aircraft wheelchair scooter drone" oneway="0"/>
    <type id="highway.residential" priority="3" numLanes="1" speed="13.89" disallow="tram rail_urban rail rail_electric rail_fast ship container cable_car subway aircraft wheelchair scooter drone" oneway="0"/>
    <type id="highway.secondary" priority="11" numLanes="1" speed="27.78" disallow="tram rail_urban rail rail_electric rail_fast ship container cable_car subway aircraft wheelchair scooter drone" oneway="0"/>
    <type id="highway.service" priority="1" numLanes="1" speed="5.56" allow="pedestrian delivery bicycle" oneway="0"/>
    <type id="highway.steps" priority="1" numLanes="1" speed="1.39" allow="pedestrian" oneway="1" width="2.00"/>
    <type id="highway.tertiary" priority="10" numLanes="1" speed="22.22" disallow="tram rail_urban rail rail_electric rail_fast ship container cable_car subway aircraft wheelchair scooter drone" oneway="0"/>
    <type id="highway.unclassified" priority="4" numLanes="1" speed="13.89" disallow="tram rail_urban rail rail_electric rail_fast ship container cable_car subway aircraft wheelchair scooter drone" oneway="0"/>
    <type id="railway.light_rail" priority="19" numLanes="1" speed="27.78" allow="rail_urban" oneway="1"/>
    <type id="railway.tram" priority="17" numLanes="1" speed="13.89" allow="tram" oneway="1"/>

    <edge id=":10132117748_0" function="internal">
        <lane id=":10132117748_0_0" index="0" allow="pedestrian delivery bicycle" speed="3.65" length="4.67" shape="469.98,1356.03 468.59,1355.64 467.97,1355.00 468.10,1354.12 469.00,1352.99"/>
    </edge>
    <edge id=":10132117754_0" function="internal">
        <lane id=":10132117754_0_0" index="0" disallow="tram rail_urban rail rail_electric rail_fast ship container cable_car subway aircraft wheelchair scooter drone" speed="8.33" length="0.30" shape="536.87,1383.14 536.79,1382.86"/>
    </edge>
    <edge id=":10301193336_0" function="internal">
        <lane id=":10301193336_0_0" index="0" allow="pedestrian bicycle" speed="2.89" length="2.92" width="2.00" shape="415.18,1310.19 416.04,1309.91 416.59,1310.02 416.83,1310.53 416.76,1311.43"/>
    </edge>
    <edge id=":10301193367_0" function="internal">
        <lane id=":10301193367_0_0" index="0" allow="bicycle" speed="8.33" length="1.99" width="2.00" shape="397.06,1326.43 395.11,1326.77"/>
    </edge>
    <edge id=":10301193367_1" function="internal">
        <lane id=":10301193367_1_0" index="0" allow="bicycle" speed="8.33" length="0.73" width="2.00" shape="399.41,1327.67 399.07,1327.02"/>
    </edge>
    <edge id=":10301193367_2" function="internal">
        <lane id=":10301193367_2_0" index="0" disallow="tram rail_urban rail rail_electric rail_fast ship container cable_car subway aircraft wheelchair scooter drone" speed="3.65" length="2.34" shape="398.83,1327.54 397.80,1328.55 396.93,1328.78"/>
    </edge>
    <edge id=":10301193367_3" function="internal">
        <lane id=":10301193367_3_0" index="0" disallow="tram rail_urban rail rail_electric rail_fast ship container cable_car subway aircraft wheelchair scooter drone" speed="3.65" length="2.34" shape="396.93,1328.78 396.23,1328.23 395.69,1326.89"/>
    </edge>
    <edge id=":10301193386_0" function="internal">
        <lane id=":10301193386_0_0" index="0" allow="pedestrian bicycle" speed="2.89" length="2.92" width="2.00" shape="390.78,1330.35 390.12,1329.73 389.95,1329.20 390.28,1328.75 391.10,1328.37"/>
    </edge>
    <edge id=":10301193395_0" function="internal">
        <lane id=":10301193395_0_0" index="0" allow="bicycle" speed="3.75" length="3.54" width="2.00" shape="397.87,1330.39 397.41,1329.71 396.78,1329.53 396.01,1329.84 395.08,1330.65"/>
    </edge>
    <edge id=":10301193395_1" function="internal">
        <lane id=":10301193395_1_0" index="0" allow="bicycle" speed="8.33" length="3.89" width="2.00" shape="397.87,1330.39 397.43,1329.32 397.19,1328.56 397.09,1327.78 397.06,1326.63"/>
    </edge>
    <edge id=":10301193395_2" function="internal">
        <lane id=":10301193395_2_0" index="0" allow="bicycle" speed="6.95" length="12.38" width="2.00" shape="397.87,1330.39 397.61,1328.22 398.59,1325.89 400.80,1323.40 404.24,1320.76"/>
    </edge>
    <edge id=":10301193395_3" function="internal">
        <lane id=":10301193395_3_0" index="0" allow="bicycle" speed="2.89" length="1.28" width="2.00" shape="397.87,1330.39 398.04,1329.50 398.29,1329.22"/>
    </edge>
    <edge id=":10301193395_16" function="internal">
        <lane id=":10301193395_16_0" index="0" allow="bicycle" speed="2.89" length="1.64" width="2.00" shape="398.29,1329.22 398.41,1329.08 398.96,1329.12 399.72,1329.61"/>
    </edge>
    <edge id=":10301193395_4" function="internal">
        <lane id=":10301193395_4_0" index="0" allow="bicycle" speed="5.18" length="8.27" width="2.00" shape="399.07,1327.22 404.24,1320.76"/>
    </edge>
    <edge id=":10301193395_5" function="internal">
        <lane id=":10301193395_5_0" index="0" allow="bicycle" speed="8.33" length="2.51" width="2.00" shape="399.07,1327.22 399.11,1327.95 399.22,1328.45 399.41,1328.93 399.72,1329.61"/>
    </edge>
    <edge id=":10301193395_6" function="internal">
        <lane id=":10301193395_6_0" index="0" allow="bicycle" speed="6.95" length="1.72" width="2.00" shape="399.07,1327.22 398.71,1328.60 398.46,1328.76"/>
    </edge>
    <edge id=":10301193395_7" function="internal">
        <lane id=":10301193395_7_0" index="0" allow="bicycle" speed="2.93" length="0.58" width="2.00" shape="399.07,1327.22 398.62,1327.59"/>
    </edge>
    <edge id=":10301193395_17" function="internal">
        <lane id=":10301193395_17_0" index="0" allow="bicycle" speed="6.95" length="3.91" width="2.00" shape="398.46,1328.76 397.76,1329.21 396.47,1329.68 395.08,1330.65"/>
    </edge>
    <edge id=":10301193395_18" function="internal">
        <lane id=":10301193395_18_0" index="0" allow="bicycle" speed="2.93" length="2.47" width="2.00" shape="398.62,1327.59 398.35,1327.82 397.77,1327.93 397.34,1327.53 397.06,1326.63"/>
    </edge>
    <edge id=":10301193395_8" function="internal">
        <lane id=":10301193395_8_0" index="0" allow="bicycle" speed="6.95" length="9.66" width="2.00" shape="405.35,1322.42 402.46,1324.57 400.56,1326.48 399.65,1328.16 399.72,1329.61"/>
    </edge>
    <edge id=":10301193395_9" function="internal">
        <lane id=":10301193395_9_0" index="0" allow="pedestrian bicycle" speed="5.56" length="13.19" width="2.00" shape="405.35,1322.42 402.48,1324.37 399.95,1326.22 397.55,1328.23 395.08,1330.65"/>
    </edge>
    <edge id=":10301193395_10" function="internal">
        <lane id=":10301193395_10_0" index="0" allow="bicycle" speed="5.52" length="9.54" width="2.00" shape="405.35,1322.42 401.73,1324.77 399.14,1326.25 397.59,1326.87 397.06,1326.63"/>
    </edge>
    <edge id=":10301193395_11" function="internal">
        <lane id=":10301193395_11_0" index="0" allow="pedestrian bicycle" speed="2.89" length="2.92" width="2.00" shape="405.35,1322.42 404.45,1322.42 403.96,1322.14 403.89,1321.59 404.24,1320.76"/>
    </edge>
    <edge id=":10301193395_12" function="internal">
        <lane id=":10301193395_12_0" index="0" allow="bicycle" speed="4.78" length="5.41" width="2.00" shape="392.89,1328.66 394.73,1328.79 396.03,1328.50 396.81,1327.77 397.06,1326.63"/>
    </edge>
    <edge id=":10301193395_13" function="internal">
        <lane id=":10301193395_13_0" index="0" allow="pedestrian bicycle" speed="5.56" length="14.29" width="2.00" shape="392.89,1328.66 396.16,1328.16 398.86,1326.06 401.41,1323.28 404.24,1320.76"/>
    </edge>
    <edge id=":10301193395_14" function="internal">
        <lane id=":10301193395_14_0" index="0" allow="bicycle" speed="6.95" length="6.96" width="2.00" shape="392.89,1328.66 394.32,1328.75 396.53,1328.85 398.63,1329.10 399.72,1329.61"/>
    </edge>
    <edge id=":10301193395_15" function="internal">
        <lane id=":10301193395_15_0" index="0" allow="pedestrian bicycle" speed="3.89" length="4.31" width="2.00" shape="392.89,1328.66 394.18,1328.34 394.98,1328.56 395.28,1329.33 395.08,1330.65"/>
    </edge>
    <edge id=":10310773535_0" function="internal">
        <lane id=":10310773535_0_0" index="0" allow="pedestrian bicycle" speed="5.56" length="8.85" width="2.00" shape="1296.68,1220.56 1294.98,1222.57 1293.85,1223.97 1292.60,1225.26 1290.58,1226.93"/>
    </edge>
    <edge id=":10310773535_1" function="internal">
        <lane id=":10310773535_1_0" index="0" allow="pedestrian bicycle" speed="2.90" length="0.51" width="2.00" shape="1296.68,1220.56 1296.17,1220.59"/>
    </edge>
    <edge id=":10310773535_4" function="internal">
        <lane id=":10310773535_4_0" index="0" allow="pedestrian bicycle" speed="2.90" length="2.47" width="2.00" shape="1296.17,1220.59 1295.76,1220.62 1295.25,1220.37 1295.14,1219.81 1295.43,1218.94"/>
    </edge>
    <edge id=":10310773535_2" function="internal">
        <lane id=":10310773535_2_0" index="0" allow="pedestrian bicycle" speed="5.56" length="8.85" width="2.00" shape="1289.36,1225.34 1291.38,1223.67 1292.62,1222.37 1293.74,1220.96 1295.43,1218.94"/>
    </edge>
    <edge id=":10310773535_3" function="internal">
        <lane id=":10310773535_3_0" index="0" allow="pedestrian bicycle" speed="2.89" length="0.79" width="2.00" shape="1289.36,1225.34 1290.16,1225.29"/>
    </edge>
    <edge id=":10310773535_5" function="internal">
        <lane id=":10310773535_5_0" index="0" allow="pedestrian bicycle" speed="2.89" length="2.13" width="2.00" shape="1290.16,1225.29 1290.26,1225.28 1290.77,1225.52 1290.87,1226.07 1290.58,1226.93"/>
    </edge>
    <edge id=":10310802909_0" function="internal">
        <lane id=":10310802909_0_0" index="0" disallow="tram rail_urban rail rail_electric rail_fast ship container cable_car subway aircraft wheelchair scooter drone" speed="13.89" length="9.13" shape="1283.42,1190.94 1280.87,1190.02 1279.07,1189.45 1277.39,1188.67 1275.22,1187.10"/>
    </edge>
    <edge id=":10310802909_1" function="internal">
        <lane id=":10310802909_1_0" index="0" allow="tram" speed="13.89" length="24.76" shape="1284.50,1187.72 1260.55,1181.45"/>
    </edge>
    <edge id=":10310802910_0" function="internal">
        <lane id=":10310802910_0_0" index="0" disallow="tram rail_urban rail rail_electric rail_fast ship container cable_car subway aircraft wheelchair scooter drone" speed="8.33" length="2.82" shape="1469.86,1237.87 1469.06,1237.63 1468.51,1237.48 1467.94,1237.37 1467.12,1237.24"/>
    </edge>
    <edge id=":10310802910_1" function="internal">
        <lane id=":10310802910_1_0" index="0" allow="tram" speed="13.89" length="2.83" shape="1469.87,1237.83 1467.15,1237.08"/>
    </edge>
    <edge id=":10310802911_0" function="internal">
        <lane id=":10310802911_0_0" index="0" allow="tram" speed="13.89" length="3.01" shape="1277.24,1182.14 1280.14,1182.92"/>
    </edge>
    <edge id=":10310802911_1" function="internal">
        <lane id=":10310802911_1_0" index="0" disallow="tram rail_urban rail rail_electric rail_fast ship container cable_car subway aircraft wheelchair scooter drone" speed="13.89" length="1.48" shape="1278.92,1180.95 1280.38,1181.14"/>
        <lane id=":10310802911_1_1" index="1" disallow="tram rail_urban rail rail_electric rail_fast ship container cable_car subway aircraft wheelchair scooter drone" speed="13.89" length="1.48" shape="1278.49,1184.12 1279.95,1184.31"/>
    </edge>
    <edge id=":10310802913_0" function="internal">
        <lane id=":10310802913_0_0" index="0" disallow="tram rail_urban rail rail_electric rail_fast ship container cable_car subway aircraft wheelchair scooter drone" speed="8.33" length="3.05" shape="1464.58,1232.58 1465.41,1232.94 1465.98,1233.18 1466.56,1233.39 1467.42,1233.67"/>
    </edge>
    <edge id=":10310802913_1" function="internal">
        <lane id=":10310802913_1_0" index="0" allow="tram" speed="13.89" length="3.03" shape="1464.51,1232.82 1467.44,1233.62"/>
    </edge>
    <edge id=":10559598126_0" function="internal">
        <lane id=":10559598126_0_0" index="0" allow="pedestrian bicycle" speed="5.56" length="5.73" width="2.00" shape="1163.16,1320.85 1167.76,1317.44"/>
    </edge>
    <edge id=":10559598126_1" function="internal">
        <lane id=":10559598126_1_0" index="0" allow="bicycle" speed="5.56" length="5.55" width="2.00" shape="1163.16,1320.85 1164.51,1319.96 1165.55,1319.53 1166.68,1319.30 1168.29,1318.97"/>
    </edge>
    <edge id=":10559598134_0" function="internal">
        <lane id=":10559598134_0_0" index="0" allow="bicycle" speed="5.56" length="1.24" width="2.00" shape="1168.49,1318.93 1169.69,1318.65"/>
    </edge>
    <edge id=":10751453114_0" function="internal">
        <lane id=":10751453114_0_0" index="0" allow="pedestrian bicycle" speed="5.56" length="6.89" width="2.00" shape="1065.72,1437.78 1064.10,1436.68 1062.50,1436.14 1060.92,1436.18 1059.37,1436.78"/>
    </edge>
    <edge id=":10751453114_1" function="internal">
        <lane id=":10751453114_1_0" index="0" allow="pedestrian delivery bicycle" speed="5.56" length="5.27" shape="1065.72,1437.78 1061.71,1434.37"/>
    </edge>
    <edge id=":10751453114_2" function="internal">
        <lane id=":10751453114_2_0" index="0" allow="pedestrian delivery bicycle" speed="3.65" length="4.67" shape="1065.72,1437.78 1065.33,1436.40 1065.54,1435.53 1066.36,1435.18 1067.80,1435.34"/>
    </edge>
    <edge id=":10751453114_3" function="internal">
        <lane id=":10751453114_3_0" index="0" allow="pedestrian bicycle" speed="4.35" length="4.87" width="2.00" shape="1068.49,1431.54 1067.29,1432.44 1066.77,1433.38 1066.94,1434.34 1067.80,1435.34"/>
    </edge>
    <edge id=":10751453114_4" function="internal">
        <lane id=":10751453114_4_0" index="0" allow="pedestrian bicycle" speed="5.56" length="10.52" width="2.00" shape="1068.49,1431.54 1059.37,1436.78"/>
    </edge>
    <edge id=":10751453114_5" function="internal">
        <lane id=":10751453114_5_0" index="0" allow="pedestrian bicycle" speed="5.56" length="7.43" width="2.00" shape="1068.49,1431.54 1067.17,1432.28 1065.06,1433.38 1062.97,1434.27 1061.71,1434.37"/>
    </edge>
    <edge id=":10751453114_6" function="internal">
        <lane id=":10751453114_6_0" index="0" allow="pedestrian delivery bicycle" speed="5.56" length="5.27" shape="1063.78,1431.93 1067.80,1435.34"/>
    </edge>
    <edge id=":10751453114_7" function="internal">
        <lane id=":10751453114_7_0" index="0" allow="pedestrian bicycle" speed="5.33" length="7.21" width="2.00" shape="1063.78,1431.93 1064.11,1432.75 1063.49,1433.83 1061.91,1435.18 1059.37,1436.78"/>
    </edge>
    <edge id=":10751453114_8" function="internal">
        <lane id=":10751453114_8_0" index="0" allow="pedestrian delivery bicycle" speed="3.65" length="4.67" shape="1063.78,1431.93 1064.17,1433.32 1063.96,1434.19 1063.14,1434.54 1061.71,1434.37"/>
    </edge>
    <edge id=":10751453115_0" function="internal">
        <lane id=":10751453115_0_0" index="0" allow="pedestrian delivery bicycle" speed="4.27" length="4.22" shape="1075.51,1424.85 1075.17,1424.21 1074.46,1424.03 1073.38,1424.32 1071.92,1425.08"/>
    </edge>
    <edge id=":10751453115_1" function="internal">
        <lane id=":10751453115_1_0" index="0" allow="pedestrian delivery bicycle" speed="3.65" length="4.67" shape="1075.51,1424.85 1076.09,1423.53 1076.81,1423.00 1077.67,1423.25 1078.66,1424.30"/>
    </edge>
    <edge id=":10751453115_2" function="internal">
        <lane id=":10751453115_2_0" index="0" allow="pedestrian delivery bicycle" speed="5.77" length="4.95" shape="1080.37,1420.00 1079.43,1420.77 1078.83,1421.74 1078.58,1422.92 1078.66,1424.30"/>
    </edge>
    <edge id=":10751453115_3" function="internal">
        <lane id=":10751453115_3_0" index="0" disallow="tram rail_urban rail rail_electric rail_fast ship container cable_car subway aircraft wheelchair scooter drone" speed="13.89" length="9.86" shape="1080.37,1420.00 1071.92,1425.08"/>
        <lane id=":10751453115_3_1" index="1" disallow="tram rail_urban rail rail_electric rail_fast ship container cable_car subway aircraft wheelchair scooter drone" speed="13.89" length="9.86" shape="1078.72,1417.25 1070.27,1422.33"/>
    </edge>
    <edge id=":10751453116_0" function="internal">
        <lane id=":10751453116_0_0" index="0" allow="pedestrian delivery bicycle" speed="5.52" length="4.65" shape="1061.55,1434.24 1060.52,1433.57 1059.46,1433.28 1058.37,1433.38 1057.25,1433.86"/>
    </edge>
    <edge id=":10751453116_1" function="internal">
        <lane id=":10751453116_1_0" index="0" allow="pedestrian delivery bicycle" speed="3.65" length="4.67" shape="1061.55,1434.24 1061.16,1432.85 1061.37,1431.99 1062.19,1431.63 1063.63,1431.80"/>
    </edge>
    <edge id=":10751453116_2" function="internal">
        <lane id=":10751453116_2_0" index="0" allow="pedestrian delivery bicycle" speed="4.26" length="4.08" shape="1065.63,1428.86 1064.30,1429.77 1063.53,1430.56 1063.30,1431.24 1063.63,1431.80"/>
    </edge>
    <edge id=":10751453116_3" function="internal">
        <lane id=":10751453116_3_0" index="0" disallow="tram rail_urban rail rail_electric rail_fast ship container cable_car subway aircraft wheelchair scooter drone" speed="13.89" length="9.76" shape="1065.63,1428.86 1057.25,1433.86"/>
        <lane id=":10751453116_3_1" index="1" disallow="tram rail_urban rail rail_electric rail_fast ship container cable_car subway aircraft wheelchair scooter drone" speed="13.89" length="9.76" shape="1063.99,1426.11 1055.61,1431.12"/>
    </edge>
    <edge id=":10751453118_0" function="internal">
        <lane id=":10751453118_0_0" index="0" allow="pedestrian bicycle" speed="4.52" length="4.91" width="2.00" shape="1076.38,1430.44 1075.98,1429.17 1075.25,1428.51 1074.18,1428.48 1072.78,1429.07"/>
    </edge>
    <edge id=":10751453118_1" function="internal">
        <lane id=":10751453118_1_0" index="0" allow="pedestrian delivery bicycle" speed="5.56" length="5.46" shape="1076.38,1430.44 1075.55,1425.05"/>
    </edge>
    <edge id=":10751453118_2" function="internal">
        <lane id=":10751453118_2_0" index="0" allow="pedestrian delivery bicycle" speed="3.65" length="4.67" shape="1076.38,1430.44 1077.00,1429.14 1077.73,1428.63 1078.58,1428.91 1079.55,1429.98"/>
    </edge>
    <edge id=":10751453118_3" function="internal">
        <lane id=":10751453118_3_0" index="0" allow="pedestrian bicycle" speed="5.56" length="7.09" width="2.00" shape="1081.98,1423.79 1080.67,1424.84 1079.83,1426.22 1079.46,1427.93 1079.55,1429.98"/>
    </edge>
    <edge id=":10751453118_4" function="internal">
        <lane id=":10751453118_4_0" index="0" allow="pedestrian bicycle" speed="5.56" length="10.60" width="2.00" shape="1081.98,1423.79 1072.78,1429.07"/>
    </edge>
    <edge id=":10751453118_5" function="internal">
        <lane id=":10751453118_5_0" index="0" allow="pedestrian bicycle" speed="5.18" length="7.26" width="2.00" shape="1081.98,1423.79 1079.31,1425.17 1077.35,1425.84 1076.09,1425.80 1075.55,1425.05"/>
    </edge>
    <edge id=":10751453118_6" function="internal">
        <lane id=":10751453118_6_0" index="0" allow="pedestrian delivery bicycle" speed="5.56" length="5.55" shape="1078.70,1424.49 1079.55,1429.98"/>
    </edge>
    <edge id=":10751453118_7" function="internal">
        <lane id=":10751453118_7_0" index="0" allow="pedestrian bicycle" speed="5.56" length="7.60" width="2.00" shape="1078.70,1424.49 1078.40,1425.18 1077.31,1426.17 1075.44,1427.47 1072.78,1429.07"/>
    </edge>
    <edge id=":10751453118_8" function="internal">
        <lane id=":10751453118_8_0" index="0" allow="pedestrian delivery bicycle" speed="3.65" length="4.67" shape="1078.70,1424.49 1078.12,1425.81 1077.40,1426.35 1076.54,1426.09 1075.55,1425.05"/>
    </edge>
    <edge id=":10751453120_0" function="internal">
        <lane id=":10751453120_0_0" index="0" allow="pedestrian delivery bicycle" speed="5.30" length="4.77" shape="1074.84,1444.79 1074.59,1443.54 1074.01,1442.59 1073.11,1441.94 1071.88,1441.60"/>
    </edge>
    <edge id=":10751453120_1" function="internal">
        <lane id=":10751453120_1_0" index="0" allow="pedestrian delivery bicycle" speed="5.56" length="8.44" shape="1074.84,1444.79 1074.71,1442.30 1074.87,1440.55 1075.53,1438.95 1076.91,1436.91"/>
    </edge>
    <edge id=":10751453120_2" function="internal">
        <lane id=":10751453120_2_0" index="0" allow="pedestrian delivery bicycle" speed="3.65" length="4.67" shape="1074.84,1444.79 1075.56,1443.54 1076.34,1443.09 1077.16,1443.44 1078.03,1444.59"/>
    </edge>
    <edge id=":10751453120_3" function="internal">
        <lane id=":10751453120_3_0" index="0" allow="pedestrian delivery bicycle" speed="5.56" length="6.18" shape="1079.49,1438.80 1078.48,1440.30 1078.02,1441.48 1077.93,1442.76 1078.03,1444.59"/>
    </edge>
    <edge id=":10751453120_4" function="internal">
        <lane id=":10751453120_4_0" index="0" allow="pedestrian delivery bicycle" speed="5.56" length="8.52" shape="1079.49,1438.80 1078.04,1440.29 1076.29,1441.25 1074.24,1441.68 1071.88,1441.60"/>
    </edge>
    <edge id=":10751453120_5" function="internal">
        <lane id=":10751453120_5_0" index="0" allow="pedestrian delivery bicycle" speed="3.65" length="4.67" shape="1079.49,1438.80 1078.13,1439.30 1077.25,1439.15 1076.84,1438.35 1076.91,1436.91"/>
    </edge>
    <edge id=":10751453120_6" function="internal">
        <lane id=":10751453120_6_0" index="0" allow="pedestrian delivery bicycle" speed="5.56" length="5.07" shape="1072.32,1438.43 1073.79,1438.50 1075.04,1438.27 1076.08,1437.74 1076.91,1436.91"/>
    </edge>
    <edge id=":10751453120_7" function="internal">
        <lane id=":10751453120_7_0" index="0" allow="pedestrian delivery bicycle" speed="5.56" length="9.21" shape="1072.32,1438.43 1074.70,1439.09 1076.44,1440.34 1077.55,1442.17 1078.03,1444.59"/>
    </edge>
    <edge id=":10751453120_8" function="internal">
        <lane id=":10751453120_8_0" index="0" allow="pedestrian delivery bicycle" speed="3.65" length="4.67" shape="1072.32,1438.43 1073.40,1439.39 1073.69,1440.23 1073.18,1440.97 1071.88,1441.60"/>
    </edge>
    <edge id=":10751453121_0" function="internal">
        <lane id=":10751453121_0_0" index="0" allow="pedestrian delivery bicycle" speed="3.65" length="4.67" shape="1078.14,1446.24 1077.41,1447.49 1076.64,1447.94 1075.82,1447.59 1074.94,1446.44"/>
    </edge>
    <edge id=":10762053020_0" function="internal">
        <lane id=":10762053020_0_0" index="0" allow="rail_urban subway" speed="27.78" length="13.90" shape="675.75,1051.00 671.73,1064.31"/>
    </edge>
    <edge id=":10762053020_1" function="internal">
        <lane id=":10762053020_1_0" index="0" allow="tram" speed="13.89" length="7.17" shape="673.91,1057.44 675.37,1055.90 676.45,1054.92 677.63,1054.05 679.40,1052.88"/>
    </edge>
    <edge id=":10762053021_0" function="internal">
        <lane id=":10762053021_0_0" index="0" disallow="tram rail_urban rail rail_electric rail_fast ship container cable_car subway aircraft wheelchair scooter drone" speed="8.33" length="9.51" shape="675.66,1051.72 673.01,1060.85"/>
    </edge>
    <edge id=":10762053021_1" function="internal">
        <lane id=":10762053021_1_0" index="0" disallow="tram rail_urban rail rail_electric rail_fast ship container cable_car subway aircraft wheelchair scooter drone" speed="3.65" length="4.67" shape="675.66,1051.72 674.56,1052.65 673.68,1052.81 673.02,1052.21 672.58,1050.84"/>
    </edge>
    <edge id=":10762053021_2" function="internal">
        <lane id=":10762053021_2_0" index="0" disallow="tram rail_urban rail rail_electric rail_fast ship container cable_car subway aircraft wheelchair scooter drone" speed="8.33" length="9.30" shape="670.00,1059.77 672.58,1050.84"/>
    </edge>
    <edge id=":10762053021_3" function="internal">
        <lane id=":10762053021_3_0" index="0" disallow="tram rail_urban rail rail_electric rail_fast ship container cable_car subway aircraft wheelchair scooter drone" speed="3.65" length="4.67" shape="670.00,1059.77 671.16,1058.91 672.05,1058.80 672.67,1059.45 673.01,1060.85"/>
    </edge>
    <edge id=":10762053021_4" function="internal">
        <lane id=":10762053021_4_0" index="0" allow="tram" speed="13.89" length="3.59" shape="671.40,1060.27 672.00,1059.40 672.49,1058.86 673.02,1058.35 673.77,1057.59"/>
    </edge>
    <edge id=":1111667440_0" function="internal">
        <lane id=":1111667440_0_0" index="0" disallow="tram rail_urban rail rail_electric rail_fast ship container cable_car subway aircraft wheelchair scooter drone" speed="8.33" length="5.00" shape="1351.91,1260.99 1353.40,1265.76"/>
    </edge>
    <edge id=":1111667444_0" function="internal">
        <lane id=":1111667444_0_0" index="0" disallow="tram rail_urban rail rail_electric rail_fast ship container cable_car subway aircraft wheelchair scooter drone" speed="8.33" length="5.08" shape="1331.25,1272.83 1329.44,1268.08"/>
    </edge>
    <edge id=":11163038265_0" function="internal">
        <lane id=":11163038265_0_0" index="0" disallow="tram rail_urban rail rail_electric rail_fast ship container cable_car subway aircraft wheelchair scooter drone" speed="8.33" length="0.30" shape="1394.96,1662.64 1395.26,1662.64"/>
    </edge>
    <edge id=":11188399934_0" function="internal">
        <lane id=":11188399934_0_0" index="0" allow="rail_urban subway" speed="27.78" length="2.89" shape="570.13,1338.60 569.48,1341.42"/>
    </edge>
    <edge id=":11188399934_1" function="internal">
        <lane id=":11188399934_1_0" index="0" disallow="tram rail_urban rail rail_electric rail_fast ship container cable_car subway aircraft wheelchair scooter drone" speed="13.89" length="2.88" shape="570.09,1338.59 569.93,1339.43 569.83,1340.01 569.77,1340.59 569.70,1341.44"/>
    </edge>
    <edge id=":11216167557_0" function="internal">
        <lane id=":11216167557_0_0" index="0" disallow="tram rail_urban rail rail_electric rail_fast ship container cable_car subway aircraft wheelchair scooter drone" speed="8.33" length="5.00" shape="1570.12,1473.81 1565.50,1471.89"/>
    </edge>
    <edge id=":11216167557_1" function="internal">
        <lane id=":11216167557_1_0" index="0" disallow="tram rail_urban rail rail_electric rail_fast ship container cable_car subway aircraft wheelchair scooter drone" speed="8.33" length="5.00" shape="1566.73,1468.94 1571.35,1470.85"/>
    </edge>
    <edge id=":11216167560_0" function="internal">
        <lane id=":11216167560_0_0" index="0" allow="pedestrian bicycle" speed="2.89" length="2.92" width="2.00" shape="1603.13,1508.88 1602.40,1509.41 1601.85,1509.47 1601.47,1509.06 1601.26,1508.19"/>
    </edge>
    <edge id=":11267223270_0" function="internal">
        <lane id=":11267223270_0_0" index="0" allow="bus bicycle" speed="27.78" length="3.01" shape="1324.05,1611.79 1323.19,1608.90"/>
    </edge>
    <edge id=":11267223270_1" function="internal">
        <lane id=":11267223270_1_0" index="0" allow="tram" speed="13.89" length="2.99" shape="1324.24,1611.70 1323.00,1608.98"/>
    </edge>
    <edge id=":11582139219_0" function="internal">
        <lane id=":11582139219_0_0" index="0" allow="pedestrian bicycle" speed="5.01" length="4.69" width="2.00" shape="1614.07,1492.03 1613.01,1491.81 1612.04,1492.08 1611.17,1492.83 1610.40,1494.07"/>
    </edge>
    <edge id=":11582139219_1" function="internal">
        <lane id=":11582139219_1_0" index="0" disallow="tram rail_urban rail rail_electric rail_fast ship container cable_car subway aircraft wheelchair scooter drone" speed="8.33" length="7.01" shape="1614.07,1492.03 1607.60,1489.35"/>
    </edge>
    <edge id=":11582139219_2" function="internal">
        <lane id=":11582139219_2_0" index="0" disallow="tram rail_urban rail rail_electric rail_fast ship container cable_car subway aircraft wheelchair scooter drone" speed="8.33" length="7.01" shape="1608.82,1486.39 1615.29,1489.08"/>
    </edge>